build/datapreprocessor/datapreprocessor/datapreprocessor/data/opendss/8500Bus/IEEE8500u_VLN_Node.Txt

LINE-GROUND and LINE-LINE VOLTAGES BY BUS & NODE

Bus                  Node    VLN (kV)   Angle      pu     Base kV    Node-Node   VLL (kV)  Angle      pu

SOURCEBUS .......... 1       69.715 /_    0.0      1.05   115.000        1-2     120.75 /_   30.0      1.05
   -                 2       69.715 /_ -120.0      1.05   115.000        2-3     120.75 /_  -90.0      1.05
   -                 3       69.715 /_  120.0      1.05   115.000        3-1     120.75 /_  150.0      1.05
_HVMV_SUB_LSB ...... 1       7.5521 /_  -34.5     1.049    12.470        1-2     13.057 /_   -4.4     1.047
   -                 2       7.5387 /_ -154.3    1.0471    12.470        2-3     13.061 /_ -124.1    1.0474
   -                 3       7.5591 /_   85.9    1.0499    12.470        3-1     13.113 /_  115.7    1.0515
HVMV_SUB_48332 ..... 1       7.5521 /_  -34.5     1.049    12.470        1-2     13.057 /_   -4.4     1.047
   -                 2       7.5387 /_ -154.3    1.0471    12.470        2-3     13.061 /_ -124.1    1.0474
   -                 3       7.5591 /_   85.9    1.0499    12.470        3-1     13.113 /_  115.7    1.0515
M1009763 ........... 1       7.2335 /_  -44.9    1.0047    12.470        1-2     12.729 /_  -15.9    1.0207
   -                 2       7.2987 /_ -167.2    1.0138    12.470        2-3      12.25 /_ -133.7   0.98238
   -                 3       7.3635 /_   79.5    1.0228    12.470        3-1      12.91 /_  107.0    1.0353
L2673322 ........... 2       7.2986 /_ -167.2    1.0138    12.470
M1069148 ........... 3       7.4153 /_   80.4      1.03    12.470
L2673309 ........... 3        7.415 /_   80.4    1.0299    12.470
M1069588 ........... 2       7.2517 /_ -165.4    1.0072    12.470
L2804270 ........... 2       7.2517 /_ -165.4    1.0072    12.470
M3036164 ........... 2       7.1669 /_ -167.0   0.99546    12.470
L2935553 ........... 2       7.1654 /_ -167.0   0.99526    12.470
M1209749 ........... 2       7.3757 /_ -156.5    1.0245    12.470
L2748840 ........... 2       7.3754 /_ -156.5    1.0244    12.470
M1108264 ........... 2       7.4157 /_ -160.5      1.03    12.470
M1108263 ........... 2       7.4153 /_ -160.5      1.03    12.470
L3085398 ........... 1         7.28 /_  -44.9    1.0112    12.470        1-2     12.803 /_  -15.9    1.0267
   -                 2       7.3427 /_ -167.1    1.0199    12.470        2-3     12.303 /_ -133.7   0.98662
   -                 3       7.3749 /_   79.5    1.0243    12.470        3-1      12.96 /_  107.1    1.0393
M1026891 ........... 1       7.2768 /_  -44.9    1.0107    12.470        1-2     12.796 /_  -15.9    1.0261
   -                 2       7.3363 /_ -167.1     1.019    12.470        2-3     12.296 /_ -133.7   0.98607
   -                 3       7.3737 /_   79.5    1.0242    12.470        3-1     12.956 /_  107.1     1.039
L3216367 ........... 1       7.3504 /_  -44.4    1.0209    12.470        1-2     12.838 /_  -15.6    1.0295
   -                 2       7.3053 /_ -166.7    1.0147    12.470        2-3     12.269 /_ -133.8   0.98386
   -                 3       7.3111 /_   79.2    1.0155    12.470        3-1     12.917 /_  107.5    1.0358
M1069468 ........... 1       7.3497 /_  -44.4    1.0209    12.470        1-2     12.836 /_  -15.6    1.0294
   -                 2       7.3031 /_ -166.7    1.0144    12.470        2-3     12.266 /_ -133.8   0.98366
   -                 3       7.3103 /_   79.1    1.0154    12.470        3-1     12.915 /_  107.5    1.0357
M1142800 ........... 2       7.1968 /_ -159.0   0.99962    12.470
M1142799 ........... 2       7.1966 /_ -159.0   0.99959    12.470
M1047592 ........... 1       7.3984 /_  -44.5    1.0276    12.470        1-2     12.968 /_  -15.5      1.04
   -                 2        7.423 /_ -166.6     1.031    12.470        2-3     12.428 /_ -133.6   0.99664
   -                 3       7.4085 /_   79.5     1.029    12.470        3-1     13.078 /_  107.5    1.0487
P827512 ............ 3       7.4085 /_   79.5     1.029    12.470
M1047339 ........... 1       7.2656 /_  -40.8    1.0092    12.470        1-2     12.595 /_  -11.3      1.01
   -                 2       7.2116 /_ -161.7    1.0017    12.470        2-3     12.572 /_ -130.4    1.0082
   -                 3       7.4196 /_   79.9    1.0306    12.470        3-1     12.758 /_  109.2    1.0231
P895104 ............ 1       7.2655 /_  -40.8    1.0092    12.470
M1026915 ........... 1       7.2784 /_  -44.9     1.011    12.470        1-2     12.803 /_  -15.9    1.0267
   -                 2       7.3449 /_ -167.1    1.0202    12.470        2-3     12.304 /_ -133.8   0.98672
   -                 3       7.3738 /_   79.5    1.0242    12.470        3-1     12.958 /_  107.1    1.0391
M1026920 ........... 1       7.2764 /_  -44.9    1.0107    12.470        1-2     12.801 /_  -15.9    1.0265
   -                 2       7.3439 /_ -167.1    1.0201    12.470        2-3     12.303 /_ -133.8   0.98658
   -                 3       7.3728 /_   79.5    1.0241    12.470        3-1     12.955 /_  107.1    1.0389
N1138596 ........... 1       7.3321 /_  -44.3    1.0184    12.470
L3254207 ........... 1       7.3316 /_  -44.3    1.0183    12.470
M1069464 ........... 1       7.3487 /_  -44.4    1.0207    12.470        1-2     12.833 /_  -15.7    1.0291
   -                 2       7.2991 /_ -166.7    1.0138    12.470        2-3     12.262 /_ -133.8    0.9833
   -                 3       7.3089 /_   79.1    1.0152    12.470        3-1     12.912 /_  107.5    1.0354
P873787 ............ 2        7.299 /_ -166.7    1.0138    12.470
N1144665 ........... 1       7.4236 /_  -44.3    1.0311    12.470        1-2     12.999 /_  -15.3    1.0424
   -                 2       7.4363 /_ -166.4    1.0329    12.470        2-3     12.445 /_ -133.5   0.99798
   -                 3       7.4007 /_   79.6    1.0279    12.470        3-1     13.086 /_  107.7    1.0494
M1047515 ........... 1       7.4182 /_  -44.3    1.0304    12.470        1-2      12.99 /_  -15.3    1.0417
   -                 2       7.4324 /_ -166.4    1.0323    12.470        2-3     12.438 /_ -133.5    0.9974
   -                 3       7.3959 /_   79.6    1.0273    12.470        3-1     13.077 /_  107.7    1.0487
N1137002 ........... 1       7.3895 /_  -44.3    1.0264    12.470
M1047707 ........... 1       7.3892 /_  -44.3    1.0263    12.470
L2729406 ........... 3       7.2603 /_   81.3    1.0084    12.470
L2897768 ........... 3       7.2597 /_   81.3    1.0084    12.470
L3649301 ........... 1        7.367 /_  -44.6    1.0233    12.470
L3649302 ........... 1       7.3666 /_  -44.6    1.0232    12.470
L2970842 ........... 2       7.4382 /_ -160.5    1.0331    12.470
M1089113 ........... 2       7.4368 /_ -160.5    1.0329    12.470
M1047312 ........... 1       7.2315 /_  -40.8    1.0044    12.470        1-2     12.537 /_  -11.4    1.0054
   -                 2       7.1753 /_ -161.7   0.99663    12.470        2-3     12.528 /_ -130.4    1.0047
   -                 3       7.4104 /_   79.9    1.0293    12.470        3-1     12.721 /_  109.2    1.0201
P893163 ............ 1       7.2314 /_  -40.8    1.0044    12.470
L2822871 ........... 1       7.3122 /_  -44.8    1.0156    12.470        1-2     12.856 /_  -15.7    1.0309
   -                 2       7.3798 /_ -166.9     1.025    12.470        2-3     12.351 /_ -133.7   0.99045
   -                 3       7.3845 /_   79.5    1.0257    12.470        3-1     12.998 /_  107.2    1.0423
M1026872 ........... 1       7.3095 /_  -44.8    1.0153    12.470        1-2     12.851 /_  -15.7    1.0306
   -                 2       7.3771 /_ -166.9    1.0247    12.470        2-3     12.347 /_ -133.7   0.99015
   -                 3       7.3836 /_   79.5    1.0256    12.470        3-1     12.995 /_  107.2    1.0421
M1026312 ........... 2       7.0211 /_ -162.0   0.97522    12.470
L2973163 ........... 2       7.0184 /_ -162.0   0.97484    12.470
L3728038 ........... 1       7.3561 /_  -44.5    1.0217    12.470
L3728039 ........... 1       7.3555 /_  -44.5    1.0217    12.470
M1069567 ........... 2       7.2647 /_ -165.4     1.009    12.470
M1069582 ........... 2       7.2555 /_ -165.4    1.0078    12.470
N1140830 ........... 1       7.2202 /_  -44.7    1.0029    12.470
L3216351 ........... 1       7.2201 /_  -44.7    1.0028    12.470
L2952007 ........... 3       7.3777 /_   84.7    1.0247    12.470
L2861158 ........... 3       7.3774 /_   84.7    1.0247    12.470
N1140827 ........... 1       7.2255 /_  -44.6    1.0036    12.470        1-2     12.763 /_  -15.1    1.0235
   -                 2       7.3905 /_ -166.3    1.0265    12.470        2-3     12.291 /_ -133.6   0.98561
   -                 3       7.2651 /_   79.7    1.0091    12.470        3-1     12.815 /_  107.4    1.0276
M1026726 ........... 1       7.2254 /_  -44.6    1.0036    12.470        1-2     12.763 /_  -15.1    1.0235
   -                 2       7.3904 /_ -166.3    1.0265    12.470        2-3      12.29 /_ -133.6    0.9856
   -                 3       7.2651 /_   79.7    1.0091    12.470        3-1     12.814 /_  107.4    1.0276
L2730106 ........... 1       6.8253 /_  -41.0   0.94802    12.470        1-2     12.081 /_  -11.0   0.96879
   -                 2        7.045 /_ -162.1   0.97853    12.470        2-3     12.325 /_ -129.3   0.98838
   -                 3       7.4545 /_   81.5    1.0354    12.470        3-1     12.521 /_  108.9    1.0041
N1142099 ........... 1       6.8227 /_  -41.0   0.94766    12.470        1-2     12.078 /_  -11.1   0.96854
   -                 2       7.0437 /_ -162.1   0.97835    12.470        2-3     12.323 /_ -129.3    0.9882
   -                 3       7.4544 /_   81.5    1.0354    12.470        3-1     12.519 /_  108.8    1.0039
M1026658 ........... 1       7.2185 /_  -44.7    1.0026    12.470        1-2     12.755 /_  -15.1    1.0228
   -                 2       7.3921 /_ -166.3    1.0267    12.470        2-3     12.282 /_ -133.7   0.98496
   -                 3       7.2504 /_   79.7    1.0071    12.470        3-1     12.797 /_  107.4    1.0262
L3172805 ........... 1       7.2183 /_  -44.7    1.0026    12.470
P895112 ............ 1       7.1233 /_  -38.7   0.98941    12.470
L3048962 ........... 1       7.1232 /_  -38.7    0.9894    12.470
L2991914 ........... 1        7.371 /_  -44.4    1.0238    12.470        1-2     12.922 /_  -15.3    1.0363
   -                 2       7.4053 /_ -166.4    1.0286    12.470        2-3     12.382 /_ -133.5   0.99296
   -                 3       7.3568 /_   79.6    1.0218    12.470        3-1     13.004 /_  107.6    1.0428
M1047503 ........... 1       7.3674 /_  -44.4    1.0233    12.470        1-2     12.918 /_  -15.3    1.0359
   -                 2       7.4049 /_ -166.4    1.0285    12.470        2-3      12.38 /_ -133.5   0.99278
   -                 3       7.3545 /_   79.6    1.0215    12.470        3-1     12.999 /_  107.6    1.0424
M1047751 ........... 1       7.3464 /_  -44.1    1.0204    12.470
L2973154 ........... 1       7.3464 /_  -44.1    1.0204    12.470
L3010565 ........... 3       7.4121 /_   80.4    1.0295    12.470
L2897775 ........... 3       7.4119 /_   80.4    1.0295    12.470
M1125955 ........... 3       7.4567 /_   82.0    1.0357    12.470
M1125957 ........... 3       7.4567 /_   82.0    1.0357    12.470
M1069640 ........... 2        7.228 /_ -165.4     1.004    12.470
L2804269 ........... 2       7.2273 /_ -165.4    1.0038    12.470
M1026702 ........... 1       7.2493 /_  -44.6    1.0069    12.470        1-2     12.791 /_  -15.2    1.0257
   -                 2       7.3944 /_ -166.3    1.0271    12.470        2-3     12.309 /_ -133.6   0.98712
   -                 3       7.2842 /_   79.7    1.0118    12.470        3-1      12.85 /_  107.5    1.0304
N1139551 ........... 1        7.238 /_  -44.6    1.0053    12.470        1-2     12.779 /_  -15.1    1.0248
   -                 2       7.3938 /_ -166.3     1.027    12.470        2-3     12.303 /_ -133.6   0.98661
   -                 3       7.2776 /_   79.7    1.0108    12.470        3-1     12.836 /_  107.5    1.0293
N1136355 ........... 2       7.3055 /_ -165.3    1.0147    12.470
L2783231 ........... 2       7.2981 /_ -165.3    1.0137    12.470
L2748143 ........... 1        7.223 /_  -43.1    1.0032    12.470
L3251854 ........... 1       7.2228 /_  -43.1    1.0032    12.470
M1069610 ........... 2       7.2391 /_ -165.4    1.0055    12.470
M1069600 ........... 2        7.239 /_ -165.4    1.0055    12.470
M1069424 ........... 1       7.3408 /_  -44.4    1.0196    12.470        1-2     12.807 /_  -15.7    1.0271
   -                 2       7.2684 /_ -166.8    1.0096    12.470        2-3     12.228 /_ -133.8   0.98056
   -                 3       7.2982 /_   79.0    1.0137    12.470        3-1     12.887 /_  107.4    1.0334
L2935549 ........... 1       7.3398 /_  -44.3    1.0195    12.470        1-2     12.804 /_  -15.8    1.0268
   -                 2       7.2642 /_ -166.8     1.009    12.470        2-3     12.223 /_ -133.8   0.98019
   -                 3       7.2969 /_   79.0    1.0135    12.470        3-1     12.884 /_  107.4    1.0332
P895089 ............ 3       7.5037 /_   80.5    1.0422    12.470
L3235242 ........... 3       7.5035 /_   80.5    1.0422    12.470
M1026795 ........... 1       7.3319 /_  -44.5    1.0184    12.470        1-2      12.88 /_  -15.3    1.0328
   -                 2       7.4022 /_ -166.4    1.0281    12.470        2-3     12.358 /_ -133.5   0.99105
   -                 3       7.3321 /_   79.6    1.0184    12.470        3-1     12.953 /_  107.6    1.0388
N1140522 ........... 3       7.3321 /_   79.6    1.0184    12.470
L3030199 ........... 1       7.1684 /_  -38.7   0.99567    12.470        1-2     12.465 /_   -8.8   0.99961
   -                 2       7.1981 /_ -159.1    0.9998    12.470        2-3     12.603 /_ -127.9    1.0107
   -                 3       7.4412 /_   82.1    1.0336    12.470        3-1     12.703 /_  111.1    1.0187
M1125934 ........... 1       7.1684 /_  -38.7   0.99567    12.470        1-2     12.464 /_   -8.8   0.99955
   -                 2       7.1972 /_ -159.1   0.99967    12.470        2-3     12.602 /_ -127.9    1.0106
   -                 3       7.4405 /_   82.1    1.0335    12.470        3-1     12.702 /_  111.1    1.0186
M1069189 ........... 1       7.4227 /_  -40.2     1.031    12.470        1-2      12.86 /_  -10.5    1.0313
   -                 2       7.3872 /_ -160.7    1.0261    12.470        2-3     12.761 /_ -130.1    1.0233
   -                 3       7.4309 /_   80.4    1.0321    12.470        3-1       12.9 /_  110.1    1.0345
L2860487 ........... 3       7.4307 /_   80.4    1.0321    12.470
221-312488 ......... 1        6.862 /_  -40.5   0.95311    12.470        1-2     12.109 /_  -10.6   0.97107
   -                 2       7.0443 /_ -161.5   0.97844    12.470        2-3     12.342 /_ -128.9   0.98971
   -                 3       7.4466 /_   81.7    1.0343    12.470        3-1     12.526 /_  109.3    1.0045
M1089183 ........... 1        6.862 /_  -40.5   0.95311    12.470        1-2     12.109 /_  -10.6   0.97107
   -                 2       7.0443 /_ -161.5   0.97844    12.470        2-3     12.342 /_ -128.9   0.98971
   -                 3       7.4466 /_   81.7    1.0343    12.470        3-1     12.526 /_  109.3    1.0045
M1108464 ........... 2       7.0419 /_ -161.6    0.9781    12.470
L3102286 ........... 2       7.0414 /_ -161.6   0.97803    12.470
F739845 ............ 1       7.2144 /_  -40.8    1.0021    12.470        1-2     12.503 /_  -11.4    1.0026
   -                 2       7.1484 /_ -161.8   0.99289    12.470        2-3     12.498 /_ -130.4    1.0022
   -                 3        7.405 /_   79.9    1.0285    12.470        3-1     12.701 /_  109.1    1.0185
293471 ............. 1       7.2143 /_  -40.8    1.0021    12.470        1-2     12.503 /_  -11.4    1.0026
   -                 2       7.1483 /_ -161.8   0.99288    12.470        2-3     12.498 /_ -130.4    1.0022
   -                 3       7.4049 /_   79.9    1.0285    12.470        3-1     12.701 /_  109.1    1.0185
P827499 ............ 1       7.3386 /_  -44.3    1.0193    12.470
N1139254 ........... 1       7.3386 /_  -44.3    1.0193    12.470
M1026657 ........... 1       7.2148 /_  -44.7    1.0021    12.470
M1026656 ........... 1       7.2146 /_  -44.7    1.0021    12.470
M1108299 ........... 2       7.1655 /_ -159.4   0.99527    12.470
M1108300 ........... 2       7.1655 /_ -159.4   0.99527    12.470
L3198355 ........... 2       7.1651 /_ -159.4   0.99521    12.470
L2805037 ........... 2       7.1651 /_ -159.4   0.99521    12.470
N1137994 ........... 3       7.3162 /_   79.2    1.0162    12.470
M1069484 ........... 3       7.3147 /_   79.2     1.016    12.470
L2860504 ........... 1       7.2212 /_  -44.7     1.003    12.470
L2860493 ........... 1       7.2205 /_  -44.7    1.0029    12.470
M1026783 ........... 1       7.3209 /_  -44.5    1.0169    12.470        1-2     12.868 /_  -15.2    1.0319
   -                 2       7.4013 /_ -166.4     1.028    12.470        2-3     12.352 /_ -133.5   0.99055
   -                 3        7.326 /_   79.6    1.0176    12.470        3-1      12.94 /_  107.6    1.0377
M1026780 ........... 1       7.3192 /_  -44.5    1.0166    12.470        1-2     12.866 /_  -15.2    1.0318
   -                 2       7.4011 /_ -166.4     1.028    12.470        2-3     12.351 /_ -133.5   0.99047
   -                 3        7.325 /_   79.6    1.0174    12.470        3-1     12.938 /_  107.6    1.0375
P895111 ............ 3         7.46 /_   82.3    1.0362    12.470
L2895496 ........... 3       7.4597 /_   82.3    1.0361    12.470
N1140819 ........... 1       7.2298 /_  -44.6    1.0042    12.470        1-2     12.769 /_  -15.1     1.024
   -                 2       7.3916 /_ -166.3    1.0267    12.470        2-3     12.295 /_ -133.6   0.98596
   -                 3       7.2697 /_   79.7    1.0097    12.470        3-1     12.822 /_  107.4    1.0282
M1026700 ........... 1       7.2286 /_  -44.6     1.004    12.470        1-2     12.767 /_  -15.1    1.0238
   -                 2       7.3912 /_ -166.3    1.0266    12.470        2-3     12.294 /_ -133.6   0.98586
   -                 3       7.2684 /_   79.7    1.0096    12.470        3-1      12.82 /_  107.4    1.0281
M1089173 ........... 3       7.2631 /_   81.3    1.0088    12.470
L2935551 ........... 3       7.2621 /_   81.3    1.0087    12.470
M1026344 ........... 1       7.1684 /_  -40.7   0.99567    12.470
M1026364 ........... 1       7.1681 /_  -40.7   0.99563    12.470
L2879070 ........... 1       7.3865 /_  -44.6     1.026    12.470        1-2     12.953 /_  -15.5    1.0388
   -                 2       7.4188 /_ -166.6    1.0305    12.470        2-3     12.419 /_ -133.6   0.99591
   -                 3       7.4049 /_   79.6    1.0285    12.470        3-1     13.067 /_  107.5    1.0479
L3216345 ........... 1       7.3784 /_  -44.6    1.0248    12.470        1-2     12.944 /_  -15.5     1.038
   -                 2       7.4162 /_ -166.7    1.0301    12.470        2-3     12.413 /_ -133.6   0.99544
   -                 3       7.4028 /_   79.6    1.0282    12.470        3-1      13.06 /_  107.4    1.0473
M1069428 ........... 1       7.3419 /_  -44.4    1.0198    12.470        1-2      12.81 /_  -15.7    1.0273
   -                 2       7.2719 /_ -166.8    1.0101    12.470        2-3     12.232 /_ -133.8   0.98088
   -                 3       7.2993 /_   79.0    1.0139    12.470        3-1      12.89 /_  107.4    1.0337
N1139257 ........... 2       7.2719 /_ -166.8      1.01    12.470
L2991919 ........... 1       7.1643 /_  -40.7   0.99511    12.470
M1026361 ........... 1       7.1618 /_  -40.7   0.99475    12.470
N1147857 ........... 1       7.2335 /_  -44.9    1.0047    12.470
M1009742 ........... 1       7.2318 /_  -44.9    1.0045    12.470
Q14412 ............. 1       7.2564 /_  -40.8    1.0079    12.470        1-2     12.579 /_  -11.4    1.0088
   -                 2        7.202 /_ -161.7    1.0003    12.470        2-3     12.561 /_ -130.4    1.0073
   -                 3       7.4173 /_   79.9    1.0302    12.470        3-1     12.748 /_  109.2    1.0223
M1047325 ........... 1       7.2537 /_  -40.8    1.0075    12.470        1-2     12.575 /_  -11.4    1.0084
   -                 2       7.1994 /_ -161.7   0.99998    12.470        2-3     12.557 /_ -130.4     1.007
   -                 3       7.4166 /_   79.9    1.0301    12.470        3-1     12.745 /_  109.2    1.0221
N1139263 ........... 1       7.3496 /_  -44.4    1.0208    12.470
L3048227 ........... 1       7.3496 /_  -44.4    1.0208    12.470
P827506 ............ 1       7.3497 /_  -44.4    1.0209    12.470
M1069469 ........... 1       7.3497 /_  -44.4    1.0208    12.470
M1027019 ........... 2       7.3071 /_ -167.2    1.0149    12.470
L2785522 ........... 2        7.307 /_ -167.2    1.0149    12.470
L3216338 ........... 2       7.2478 /_ -167.3    1.0067    12.470
L2973146 ........... 2       7.2477 /_ -167.3    1.0067    12.470
M3037452 ........... 1       7.1543 /_  -40.7   0.99371    12.470
L2973164 ........... 1       7.1542 /_  -40.7    0.9937    12.470
L3120376 ........... 1       7.3236 /_  -44.8    1.0172    12.470
M1026925 ........... 1       7.3219 /_  -44.8     1.017    12.470
M1047612 ........... 3       7.4165 /_   79.6    1.0301    12.470
P828360 ............ 3       7.4164 /_   79.6    1.0301    12.470
M1089195 ........... 3       7.5032 /_   80.5    1.0422    12.470
L3141393 ........... 3        7.503 /_   80.5    1.0422    12.470
M1026946 ........... 2       7.3236 /_ -167.1    1.0172    12.470
M1026940 ........... 2       7.3231 /_ -167.1    1.0172    12.470
M1047471 ........... 2       7.1265 /_ -167.2   0.98985    12.470
L3216349 ........... 2       7.1265 /_ -167.2   0.98985    12.470
M1047401 ........... 1       7.1646 /_  -44.8   0.99514    12.470
L2748132 ........... 1       7.1645 /_  -44.8   0.99513    12.470
L3122820 ........... 1       7.1941 /_  -44.7   0.99924    12.470
L3141398 ........... 1        7.194 /_  -44.7   0.99923    12.470
M1108360 ........... 3       7.3368 /_   81.4    1.0191    12.470
L3048968 ........... 3       7.3366 /_   81.4     1.019    12.470
L2801950 ........... 3       7.3925 /_   80.4    1.0268    12.470
M1069224 ........... 3       7.3918 /_   80.4    1.0267    12.470
L2766746 ........... 3       7.2954 /_   79.3    1.0133    12.470
M1027073 ........... 3       7.2932 /_   79.3     1.013    12.470
M1142873 ........... 3       7.4594 /_   82.3    1.0361    12.470
M1069181 ........... 1       7.3818 /_  -40.3    1.0253    12.470
L2973151 ........... 1       7.3802 /_  -40.3    1.0251    12.470
L3179682 ........... 3       7.4191 /_   81.6    1.0305    12.470
L2786274 ........... 3       7.4191 /_   81.6    1.0305    12.470
L3066816 ........... 1       7.2192 /_  -44.7    1.0027    12.470
M1026667 ........... 1       7.2188 /_  -44.7    1.0027    12.470
M1108529 ........... 1       7.4172 /_  -41.7    1.0302    12.470        1-2      12.95 /_  -12.3    1.0385
   -                 2       7.4374 /_ -163.0     1.033    12.470        2-3     12.657 /_ -130.8     1.015
   -                 3       7.4997 /_   81.1    1.0417    12.470        3-1     13.098 /_  109.6    1.0504
M1108532 ........... 1       7.4148 /_  -41.7    1.0299    12.470        1-2     12.947 /_  -12.3    1.0383
   -                 2       7.4359 /_ -163.0    1.0328    12.470        2-3     12.654 /_ -130.8    1.0148
   -                 3       7.4997 /_   81.1    1.0417    12.470        3-1     13.097 /_  109.5    1.0502
L2766723 ........... 1       7.2203 /_  -44.7    1.0029    12.470
L3122822 ........... 1       7.2201 /_  -44.7    1.0029    12.470
L2673312 ........... 1       7.2217 /_  -44.9    1.0031    12.470
L3235247 ........... 1       7.2215 /_  -44.9    1.0031    12.470
M1166391 ........... 3       7.3926 /_   84.8    1.0268    12.470
L3254873 ........... 3       7.3885 /_   84.8    1.0263    12.470
L2861157 ........... 3       7.4319 /_   84.9    1.0323    12.470
P901951 ............ 3       7.4282 /_   84.9    1.0318    12.470
M1047346 ........... 1       7.2798 /_  -40.8    1.0112    12.470        1-2     12.617 /_  -11.3    1.0118
   -                 2       7.2248 /_ -161.7    1.0035    12.470        2-3     12.588 /_ -130.4    1.0095
   -                 3       7.4228 /_   79.8     1.031    12.470        3-1     12.773 /_  109.2    1.0243
M1047345 ........... 1        7.276 /_  -40.8    1.0106    12.470        1-2     12.611 /_  -11.3    1.0113
   -                 2       7.2215 /_ -161.7     1.003    12.470        2-3     12.584 /_ -130.4    1.0091
   -                 3        7.422 /_   79.8    1.0309    12.470        3-1     12.769 /_  109.2     1.024
L2989596 ........... 2       7.2741 /_ -165.4    1.0103    12.470
L2822873 ........... 2        7.274 /_ -165.4    1.0103    12.470
M1108328 ........... 3       7.3954 /_   81.5    1.0272    12.470
L2875754 ........... 3       7.3953 /_   81.5    1.0272    12.470
L2786204 ........... 3       7.4944 /_   85.0    1.0409    12.470
M1209819 ........... 3       7.4901 /_   85.0    1.0404    12.470
P901972 ............ 1       7.2314 /_  -44.9    1.0044    12.470
M1009726 ........... 1       7.2286 /_  -44.9     1.004    12.470
M1047702 ........... 1       7.3896 /_  -44.3    1.0264    12.470
N1137001 ........... 1       7.3896 /_  -44.3    1.0264    12.470
L2767340 ........... 1       6.9212 /_  -40.2   0.96133    12.470        1-2     12.193 /_  -10.3   0.97781
   -                 2       7.0908 /_ -161.2   0.98489    12.470        2-3     12.407 /_ -128.8   0.99499
   -                 3       7.4557 /_   81.8    1.0356    12.470        3-1     12.577 /_  109.6    1.0085
M3037449 ........... 1       6.9212 /_  -40.2   0.96133    12.470        1-2     12.193 /_  -10.3   0.97781
   -                 2       7.0908 /_ -161.2   0.98489    12.470        2-3     12.407 /_ -128.8   0.99499
   -                 3       7.4557 /_   81.8    1.0356    12.470        3-1     12.577 /_  109.6    1.0085
M1047457 ........... 2       7.1344 /_ -167.2   0.99095    12.470
L2710546 ........... 2       7.1335 /_ -167.2   0.99083    12.470
L2674027 ........... 1       6.7605 /_  -41.5   0.93902    12.470        1-2     12.003 /_  -11.6   0.96258
   -                 2        7.011 /_ -162.8   0.97382    12.470        2-3     12.267 /_ -129.7   0.98369
   -                 3       7.4536 /_   81.2    1.0353    12.470        3-1     12.482 /_  108.3    1.0009
L2692633 ........... 1       6.7533 /_  -41.6   0.93802    12.470        1-2     11.995 /_  -11.6   0.96188
   -                 2       7.0069 /_ -162.9   0.97324    12.470        2-3      12.26 /_ -129.7   0.98314
   -                 3       7.4536 /_   81.2    1.0353    12.470        3-1     12.477 /_  108.3    1.0006
N1142108 ........... 1       7.1693 /_  -38.9   0.99579    12.470
L2674051 ........... 1       7.1692 /_  -38.9   0.99578    12.470
M1069135 ........... 1       7.3046 /_  -40.7    1.0146    12.470        1-2     12.656 /_  -11.3    1.0149
   -                 2       7.2462 /_ -161.6    1.0065    12.470        2-3     12.615 /_ -130.4    1.0117
   -                 3       7.4294 /_   79.9    1.0319    12.470        3-1     12.798 /_  109.3    1.0263
R18242 ............. 1       7.2995 /_  -40.8    1.0139    12.470        1-2     12.648 /_  -11.3    1.0143
   -                 2       7.2421 /_ -161.6    1.0059    12.470        2-3     12.611 /_ -130.5    1.0113
   -                 3       7.4289 /_   79.8    1.0319    12.470        3-1     12.794 /_  109.2     1.026
M1047534 ........... 1       7.5065 /_  -44.1    1.0426    12.470        1-2     13.127 /_  -15.2    1.0527
   -                 2       7.4997 /_ -166.2    1.0417    12.470        2-3     12.552 /_ -133.3    1.0066
   -                 3       7.4586 /_   79.7     1.036    12.470        3-1     13.206 /_  107.9     1.059
N1136663 ........... 1        7.485 /_  -44.2    1.0396    12.470        1-2     13.094 /_  -15.2      1.05
   -                 2        7.483 /_ -166.3    1.0394    12.470        2-3     12.525 /_ -133.4    1.0044
   -                 3       7.4466 /_   79.7    1.0343    12.470        3-1     13.178 /_  107.8    1.0568
M1108508 ........... 3       7.5004 /_   80.9    1.0418    12.470
L3097861 ........... 3       7.5003 /_   80.9    1.0418    12.470
M1069560 ........... 2         7.27 /_ -165.4    1.0098    12.470
L2973153 ........... 1       7.4004 /_  -44.3    1.0279    12.470        1-2     12.938 /_  -15.5    1.0375
   -                 2        7.372 /_ -166.6     1.024    12.470        2-3     12.392 /_ -133.4   0.99374
   -                 3       7.4186 /_   79.6    1.0304    12.470        3-1     13.078 /_  107.6    1.0487
N1136998 ........... 1       7.3998 /_  -44.3    1.0278    12.470        1-2     12.937 /_  -15.5    1.0374
   -                 2       7.3708 /_ -166.6    1.0238    12.470        2-3     12.391 /_ -133.4   0.99365
   -                 3       7.4187 /_   79.6    1.0304    12.470        3-1     13.077 /_  107.6    1.0487
L2898515 ........... 3       7.4857 /_   83.6    1.0397    12.470
M1166387 ........... 3       7.4855 /_   83.6    1.0397    12.470
M1047442 ........... 2       7.1646 /_ -167.1   0.99515    12.470
L3235250 ........... 2       7.1646 /_ -167.1   0.99514    12.470
M1142871 ........... 1       7.0935 /_  -39.0   0.98527    12.470        1-2       12.4 /_   -9.0    0.9944
   -                 2       7.1859 /_ -159.5    0.9981    12.470        2-3     12.565 /_ -127.9    1.0076
   -                 3       7.4603 /_   82.4    1.0362    12.470        3-1     12.687 /_  110.9    1.0174
M1142874 ........... 1       7.0882 /_  -39.0   0.98454    12.470        1-2     12.394 /_   -9.1   0.99388
   -                 2       7.1828 /_ -159.5   0.99767    12.470        2-3      12.56 /_ -128.0    1.0072
   -                 3         7.46 /_   82.3    1.0362    12.470        3-1     12.684 /_  110.8    1.0171
L2955081 ........... 1       7.1697 /_  -39.0   0.99586    12.470        1-2     12.443 /_   -9.1   0.99786
   -                 2       7.1729 /_ -159.3    0.9963    12.470        2-3      12.58 /_ -128.3    1.0088
   -                 3       7.4216 /_   81.6    1.0308    12.470        3-1     12.674 /_  110.8    1.0164
M1108315 ........... 1       7.1701 /_  -39.0   0.99591    12.470        1-2     12.441 /_   -9.2   0.99768
   -                 2       7.1702 /_ -159.3   0.99593    12.470        2-3     12.577 /_ -128.3    1.0086
   -                 3       7.4193 /_   81.6    1.0305    12.470        3-1     12.671 /_  110.7    1.0161
L2973162 ........... 1       7.1685 /_  -40.7   0.99568    12.470        1-2     12.415 /_  -11.5   0.99556
   -                 2       7.0792 /_ -161.9   0.98328    12.470        2-3     12.434 /_ -130.2   0.99708
   -                 3       7.4123 /_   79.9    1.0295    12.470        3-1     12.666 /_  109.1    1.0157
M1026333 ........... 1       7.1679 /_  -40.7    0.9956    12.470        1-2     12.412 /_  -11.5   0.99532
   -                 2       7.0754 /_ -161.9   0.98275    12.470        2-3     12.431 /_ -130.2   0.99685
   -                 3       7.4132 /_   79.9    1.0297    12.470        3-1     12.666 /_  109.1    1.0157
M1009832 ........... 2       7.2563 /_ -167.3    1.0079    12.470
L2860479 ........... 2       7.2562 /_ -167.3    1.0079    12.470
M1026854 ........... 1       7.3388 /_  -44.8    1.0193    12.470        1-2     12.894 /_  -15.6     1.034
   -                 2          7.4 /_ -166.8    1.0278    12.470        2-3     12.381 /_ -133.6   0.99287
   -                 3       7.3923 /_   79.6    1.0268    12.470        3-1     13.025 /_  107.3    1.0445
P901894 ............ 1       7.3386 /_  -44.8    1.0193    12.470
M1026485 ........... 2       7.1804 /_ -161.7   0.99734    12.470
M1026492 ........... 2       7.1802 /_ -161.7   0.99731    12.470
D6413567-3_INT ..... 1       7.4038 /_  -40.3    1.0284    12.470        1-2     12.831 /_  -10.6     1.029
   -                 2       7.3709 /_ -160.8    1.0238    12.470        2-3     12.743 /_ -130.1    1.0219
   -                 3       7.4293 /_   80.3    1.0319    12.470        3-1     12.884 /_  110.0    1.0332
E182724 ............ 1       7.4038 /_  -40.3    1.0284    12.470        1-2     12.831 /_  -10.6     1.029
   -                 2       7.3709 /_ -160.8    1.0238    12.470        2-3     12.743 /_ -130.1    1.0219
   -                 3       7.4293 /_   80.3    1.0319    12.470        3-1     12.884 /_  110.0    1.0332
N1139541 ........... 1       7.4058 /_  -40.2    1.0286    12.470        1-2     12.834 /_  -10.6    1.0292
   -                 2       7.3726 /_ -160.8     1.024    12.470        2-3     12.745 /_ -130.1     1.022
   -                 3       7.4295 /_   80.3    1.0319    12.470        3-1     12.885 /_  110.0    1.0333
M4122658 ........... 1       6.8465 /_  -40.8   0.95096    12.470        1-2     12.106 /_  -10.9   0.97082
   -                 2       7.0555 /_ -161.9   0.97999    12.470        2-3     12.344 /_ -129.2   0.98988
   -                 3       7.4551 /_   81.5    1.0355    12.470        3-1     12.533 /_  109.0    1.0051
L2933135 ........... 1       6.8463 /_  -40.8   0.95093    12.470        1-2     12.106 /_  -10.9    0.9708
   -                 2       7.0554 /_ -161.9   0.97997    12.470        2-3     12.344 /_ -129.2   0.98986
   -                 3       7.4551 /_   81.5    1.0355    12.470        3-1     12.533 /_  109.0    1.0051
L2729414 ........... 1       7.2492 /_  -44.6    1.0069    12.470        1-2     12.791 /_  -15.2    1.0257
   -                 2       7.3943 /_ -166.3     1.027    12.470        2-3     12.309 /_ -133.6   0.98711
   -                 3       7.2841 /_   79.7    1.0117    12.470        3-1      12.85 /_  107.5    1.0304
L2729430 ........... 2       7.2934 /_ -167.2     1.013    12.470
L2766742 ........... 2       7.2864 /_ -167.2    1.0121    12.470
M1026972 ........... 2       7.1689 /_ -167.0   0.99574    12.470
L2860483 ........... 2       7.1686 /_ -167.0    0.9957    12.470
L2860490 ........... 1       7.2895 /_  -40.8    1.0125    12.470        1-2     12.633 /_  -11.3     1.013
   -                 2       7.2334 /_ -161.7    1.0047    12.470        2-3     12.599 /_ -130.5    1.0104
   -                 3       7.4258 /_   79.8    1.0314    12.470        3-1     12.783 /_  109.2    1.0251
L3104134 ........... 1       7.2839 /_  -40.8    1.0117    12.470        1-2     12.624 /_  -11.3    1.0123
   -                 2       7.2284 /_ -161.7     1.004    12.470        2-3     12.593 /_ -130.5    1.0098
   -                 3       7.4239 /_   79.8    1.0312    12.470        3-1     12.777 /_  109.2    1.0246
M1089144 ........... 1       7.0306 /_  -39.6   0.97653    12.470
P827522 ............ 1       7.0306 /_  -39.6   0.97653    12.470
M1089118 ........... 1       7.4639 /_  -40.0    1.0367    12.470        1-2     12.932 /_  -10.3     1.037
   -                 2       7.4305 /_ -160.5    1.0321    12.470        2-3     12.825 /_ -129.9    1.0284
   -                 3       7.4595 /_   80.6    1.0361    12.470        3-1     12.961 /_  110.3    1.0394
L3048208 ........... 1       7.4638 /_  -40.0    1.0367    12.470
M1108505 ........... 1       6.7798 /_  -41.4    0.9417    12.470        1-2     12.027 /_  -11.4   0.96446
   -                 2       7.0223 /_ -162.6   0.97538    12.470        2-3     12.285 /_ -129.6   0.98516
   -                 3       7.4536 /_   81.3    1.0353    12.470        3-1     12.494 /_  108.5    1.0019
L2955047 ........... 1       6.7739 /_  -41.4   0.94088    12.470        1-2      12.02 /_  -11.5   0.96388
   -                 2       7.0189 /_ -162.7    0.9749    12.470        2-3     12.279 /_ -129.6   0.98471
   -                 3       7.4536 /_   81.3    1.0353    12.470        3-1      12.49 /_  108.4    1.0016
M1089148 ........... 1       7.0277 /_  -39.6   0.97612    12.470
L2766721 ........... 1       7.0275 /_  -39.6   0.97611    12.470
M1026745 ........... 2       7.1227 /_ -167.2   0.98933    12.470
L3029183 ........... 2       7.1226 /_ -167.2   0.98932    12.470
L2710512 ........... 2       7.1399 /_ -167.1   0.99171    12.470
M1047828 ........... 2       7.1354 /_ -167.1   0.99109    12.470
M1047342 ........... 1       7.2755 /_  -40.8    1.0105    12.470
L3197645 ........... 1       7.2753 /_  -40.8    1.0105    12.470
M1069192 ........... 1       7.3866 /_  -40.3     1.026    12.470
L3235253 ........... 1       7.3865 /_  -40.3     1.026    12.470
L3214071 ........... 1       7.0123 /_  -39.5   0.97399    12.470        1-2     12.301 /_   -9.6   0.98647
   -                 2       7.1393 /_ -160.3   0.99163    12.470        2-3      12.49 /_ -128.4    1.0016
   -                 3       7.4571 /_   82.1    1.0358    12.470        3-1     12.633 /_  110.3    1.0131
M1125952 ........... 1       7.0048 /_  -39.6   0.97296    12.470        1-2     12.292 /_   -9.7   0.98575
   -                 2       7.1351 /_ -160.4   0.99104    12.470        2-3     12.483 /_ -128.4     1.001
   -                 3       7.4569 /_   82.0    1.0357    12.470        3-1     12.628 /_  110.2    1.0127
M1027101 ........... 2       7.1365 /_ -167.1   0.99124    12.470
L2860480 ........... 2       7.1361 /_ -167.1   0.99119    12.470
L2710517 ........... 1       7.1961 /_  -44.7   0.99952    12.470
M1026646 ........... 1       7.1946 /_  -44.7   0.99931    12.470
M1069662 ........... 2       7.2267 /_ -165.5    1.0038    12.470
L2935547 ........... 2       7.2266 /_ -165.5    1.0038    12.470
M1026931 ........... 1       7.3171 /_  -44.8    1.0163    12.470
L3216336 ........... 1       7.3166 /_  -44.8    1.0163    12.470
L3142049 ........... 1        6.812 /_  -41.1   0.94617    12.470        1-2     12.065 /_  -11.1   0.96752
   -                 2       7.0384 /_ -162.3   0.97761    12.470        2-3     12.313 /_ -129.4   0.98744
   -                 3       7.4542 /_   81.4    1.0354    12.470        3-1     12.513 /_  108.8    1.0034
M1108493 ........... 1       6.8022 /_  -41.2   0.94481    12.470        1-2     12.053 /_  -11.2   0.96658
   -                 2       7.0334 /_ -162.4   0.97693    12.470        2-3     12.305 /_ -129.5   0.98675
   -                 3        7.454 /_   81.4    1.0353    12.470        3-1     12.507 /_  108.7     1.003
M1069169 ........... 1       7.3918 /_  -40.3    1.0267    12.470        1-2     12.813 /_  -10.7    1.0275
   -                 2       7.3605 /_ -160.9    1.0224    12.470        2-3     12.731 /_ -130.1    1.0209
   -                 3       7.4284 /_   80.3    1.0318    12.470        3-1     12.873 /_  109.9    1.0323
L3010556 ........... 1       7.3849 /_  -40.3    1.0257    12.470        1-2     12.801 /_  -10.7    1.0265
   -                 2       7.3518 /_ -160.9    1.0211    12.470        2-3     12.722 /_ -130.2    1.0202
   -                 3        7.428 /_   80.3    1.0317    12.470        3-1     12.867 /_  109.9    1.0318
L2991933 ........... 3       7.3637 /_   79.5    1.0228    12.470
L3122837 ........... 3        7.363 /_   79.4    1.0227    12.470
L2691936 ........... 1       7.3161 /_  -44.8    1.0162    12.470
L2897772 ........... 1       7.2254 /_  -40.8    1.0036    12.470
L3101814 ........... 1       7.2254 /_  -40.8    1.0036    12.470
L2766732 ........... 2       7.1806 /_ -161.7   0.99737    12.470
L2989564 ........... 2        7.227 /_ -165.4    1.0038    12.470
M1126016 ........... 1       6.7645 /_  -41.4   0.93957    12.470
L3120534 ........... 1       6.7641 /_  -41.4   0.93952    12.470
M1026330 ........... 1       7.1669 /_  -40.7   0.99547    12.470        1-2     12.406 /_  -11.5   0.99488
   -                 2        7.068 /_ -161.9   0.98173    12.470        2-3     12.425 /_ -130.2    0.9964
   -                 3        7.415 /_   79.9    1.0299    12.470        3-1     12.666 /_  109.1    1.0157
L2766726 ........... 2        7.068 /_ -161.9   0.98172    12.470
P901912 ............ 2       7.3939 /_ -166.4     1.027    12.470
L3195365 ........... 2       7.3939 /_ -166.4     1.027    12.470
M1108381 ........... 1       6.8654 /_  -40.5   0.95358    12.470        1-2     12.115 /_  -10.6   0.97154
   -                 2       7.0478 /_ -161.5   0.97892    12.470        2-3     12.347 /_ -128.9   0.99014
   -                 3       7.4493 /_   81.7    1.0347    12.470        3-1     12.532 /_  109.3     1.005
L3254237 ........... 1       6.8642 /_  -40.5   0.95341    12.470        1-2     12.113 /_  -10.6    0.9714
   -                 2        7.047 /_ -161.5   0.97881    12.470        2-3     12.346 /_ -128.9   0.99004
   -                 3       7.4486 /_   81.7    1.0346    12.470        3-1      12.53 /_  109.3    1.0048
L2804262 ........... 1       7.3361 /_  -44.8     1.019    12.470
L2841639 ........... 1       7.3337 /_  -44.8    1.0186    12.470
N1230123 ........... 2       7.0546 /_ -161.5   0.97986    12.470
L2708744 ........... 2       7.0529 /_ -161.5   0.97963    12.470
M1069519 ........... 1       7.2267 /_  -43.1    1.0038    12.470        1-2     12.726 /_  -14.0    1.0206
   -                 2       7.3152 /_ -165.2    1.0161    12.470        2-3     12.474 /_ -132.0    1.0003
   -                 3       7.5127 /_   80.2    1.0435    12.470        3-1     12.975 /_  108.0    1.0405
P901927 ............ 2       7.3152 /_ -165.2    1.0161    12.470
L2897790 ........... 3        7.517 /_   80.2    1.0441    12.470
L2935566 ........... 3       7.5169 /_   80.2    1.0441    12.470
L3216337 ........... 1       7.3171 /_  -44.8    1.0163    12.470
P901931 ............ 3       7.5173 /_   80.2    1.0441    12.470
M1069548 ........... 3       7.5173 /_   80.2    1.0441    12.470
M1010013 ........... 1       7.1452 /_  -45.1   0.99245    12.470
L3120503 ........... 1       7.1451 /_  -45.1   0.99244    12.470
M1089145 ........... 1       7.0304 /_  -39.6    0.9765    12.470        1-2     12.193 /_   -9.8   0.97782
   -                 2       7.0177 /_ -160.0   0.97474    12.470        2-3     12.345 /_ -128.8   0.98994
   -                 3       7.3108 /_   81.0    1.0154    12.470        3-1     12.457 /_  110.1   0.99895
L3215385 ........... 1       7.0303 /_  -39.6   0.97649    12.470        1-2     12.193 /_   -9.8   0.97781
   -                 2       7.0176 /_ -160.0   0.97472    12.470        2-3     12.344 /_ -128.8   0.98993
   -                 3       7.3107 /_   81.0    1.0154    12.470        3-1     12.457 /_  110.1   0.99894
M1026852 ........... 1       7.3308 /_  -44.8    1.0182    12.470        1-2     12.883 /_  -15.7    1.0331
   -                 2       7.3946 /_ -166.8    1.0271    12.470        2-3     12.373 /_ -133.7   0.99219
   -                 3         7.39 /_   79.6    1.0265    12.470        3-1     13.017 /_  107.3    1.0439
M1069420 ........... 1       7.3386 /_  -44.3    1.0193    12.470        1-2       12.8 /_  -15.8    1.0265
   -                 2       7.2598 /_ -166.9    1.0084    12.470        2-3     12.218 /_ -133.9    0.9798
   -                 3       7.2955 /_   79.0    1.0133    12.470        3-1      12.88 /_  107.4    1.0329
L3157708 ........... 3       7.3763 /_   79.6    1.0246    12.470
N1137991 ........... 3       7.3763 /_   79.6    1.0246    12.470
M1108413 ........... 1       6.8702 /_  -40.5   0.95425    12.470
M1108460 ........... 1       6.8677 /_  -40.5   0.95391    12.470
P827532 ............ 1       7.2537 /_  -40.8    1.0075    12.470
M1047326 ........... 1       7.2537 /_  -40.8    1.0075    12.470
E182732 ............ 1       7.2869 /_  -44.5    1.0121    12.470        1-2     12.831 /_  -15.2     1.029
   -                 2       7.3978 /_ -166.3    1.0275    12.470        2-3     12.332 /_ -133.6   0.98892
   -                 3       7.3066 /_   79.7    1.0149    12.470        3-1     12.897 /_  107.5    1.0343
M1026760 ........... 1       7.2861 /_  -44.5     1.012    12.470        1-2      12.83 /_  -15.2    1.0289
   -                 2       7.3977 /_ -166.3    1.0275    12.470        2-3     12.331 /_ -133.6   0.98888
   -                 3       7.3061 /_   79.7    1.0148    12.470        3-1     12.896 /_  107.5    1.0342
L3048205 ........... 3       7.3263 /_   81.4    1.0176    12.470
M1108361 ........... 3       7.3132 /_   81.4    1.0158    12.470
M3036169 ........... 1       7.1993 /_  -44.7   0.99996    12.470
L2673317 ........... 1       7.1992 /_  -44.7   0.99995    12.470
L3178981 ........... 2       7.2394 /_ -161.6    1.0055    12.470
M1047368 ........... 2       7.2274 /_ -161.6    1.0039    12.470
N1136354 ........... 1       7.2252 /_  -43.1    1.0036    12.470        1-2     12.725 /_  -14.0    1.0205
   -                 2       7.3116 /_ -165.3    1.0156    12.470        2-3     12.471 /_ -132.0    1.0001
   -                 3       7.5154 /_   80.2    1.0439    12.470        3-1     12.974 /_  108.0    1.0405
L2879794 ........... 1       7.1641 /_  -38.7   0.99507    12.470
M1142811 ........... 1       7.1638 /_  -38.7   0.99503    12.470
M1069565 ........... 2       7.2742 /_ -165.4    1.0104    12.470
L2785536 ........... 2       7.2739 /_ -165.4    1.0103    12.470
L3104114 ........... 2       7.2712 /_ -167.2      1.01    12.470
M1009824 ........... 2       7.2681 /_ -167.2    1.0095    12.470
L2745848 ........... 1       7.3546 /_  -44.4    1.0215    12.470        1-2     12.851 /_  -15.6    1.0305
   -                 2       7.3202 /_ -166.6    1.0168    12.470        2-3     12.285 /_ -133.7    0.9852
   -                 3       7.3158 /_   79.2    1.0162    12.470        3-1     12.929 /_  107.5    1.0368
L2673308 ........... 1       7.3537 /_  -44.4    1.0214    12.470        1-2     12.848 /_  -15.6    1.0303
   -                 2       7.3169 /_ -166.7    1.0163    12.470        2-3     12.282 /_ -133.7    0.9849
   -                 3       7.3149 /_   79.2     1.016    12.470        3-1     12.926 /_  107.5    1.0366
L2991939 ........... 1       7.3519 /_  -44.4    1.0212    12.470        1-2     12.842 /_  -15.6    1.0299
   -                 2       7.3105 /_ -166.7    1.0154    12.470        2-3     12.275 /_ -133.7   0.98433
   -                 3       7.3128 /_   79.2    1.0157    12.470        3-1     12.921 /_  107.5    1.0362
L2916606 ........... 3        7.346 /_   81.4    1.0203    12.470
L2822864 ........... 3       7.3459 /_   81.4    1.0203    12.470
M1142851 ........... 1       7.1531 /_  -38.5   0.99354    12.470        1-2     12.474 /_   -8.6    1.0003
   -                 2        7.221 /_ -158.9     1.003    12.470        2-3     12.621 /_ -127.6    1.0121
   -                 3       7.4641 /_   82.6    1.0367    12.470        3-1     12.729 /_  111.3    1.0208
196-31070 .......... 1       7.1511 /_  -38.5   0.99327    12.470        1-2     12.472 /_   -8.6    1.0001
   -                 2       7.2198 /_ -159.0    1.0028    12.470        2-3     12.619 /_ -127.6    1.0119
   -                 3       7.4639 /_   82.6    1.0367    12.470        3-1     12.728 /_  111.3    1.0207
M1209822 ........... 3       7.4513 /_   84.9     1.035    12.470
M1209823 ........... 3       7.4481 /_   84.9    1.0345    12.470
M1069550 ........... 2       7.2785 /_ -165.3     1.011    12.470
M1069551 ........... 2       7.2781 /_ -165.3    1.0109    12.470
L3141397 ........... 2       7.1685 /_ -167.0   0.99568    12.470
L3649299 ........... 1       7.3682 /_  -44.6    1.0234    12.470
M3772794 ........... 1       7.3682 /_  -44.6    1.0234    12.470
P895106 ............ 2       7.1032 /_ -160.9   0.98661    12.470
L3048887 ........... 2       7.1027 /_ -160.9   0.98655    12.470
M1047824 ........... 2       7.1426 /_ -167.1   0.99208    12.470
M1047834 ........... 2       7.1381 /_ -167.1   0.99147    12.470
M1069350 ........... 1        7.336 /_  -44.3    1.0189    12.470        1-2     12.775 /_  -15.9    1.0244
   -                 2       7.2265 /_ -166.9    1.0037    12.470        2-3      12.18 /_ -134.0   0.97672
   -                 3        7.274 /_   78.8    1.0103    12.470        3-1     12.846 /_  107.4    1.0302
N1144668 ........... 1       7.3363 /_  -44.3     1.019    12.470        1-2     12.775 /_  -15.9    1.0244
   -                 2       7.2263 /_ -166.9    1.0037    12.470        2-3     12.179 /_ -134.0   0.97669
   -                 3       7.2731 /_   78.8    1.0102    12.470        3-1     12.845 /_  107.4    1.0301
L2879072 ........... 2       7.1816 /_ -167.1    0.9975    12.470
M1047441 ........... 2       7.1671 /_ -167.1   0.99549    12.470
M1108274 ........... 2       7.4194 /_ -160.5    1.0305    12.470
M1108269 ........... 2       7.4193 /_ -160.5    1.0305    12.470
L3235244 ........... 1       7.3274 /_  -44.3    1.0178    12.470
M1069398 ........... 1        7.327 /_  -44.3    1.0177    12.470
N1147862 ........... 1       7.2666 /_  -44.9    1.0093    12.470
L2685805 ........... 1       7.2665 /_  -44.9    1.0093    12.470
M1069247 ........... 1       7.3365 /_  -44.3     1.019    12.470
M1069248 ........... 1       7.3362 /_  -44.3     1.019    12.470
L2786273 ........... 2       7.4187 /_ -160.5    1.0304    12.470
M1108278 ........... 2       7.4182 /_ -160.5    1.0304    12.470
L3254238 ........... 1       7.2195 /_  -40.8    1.0028    12.470        1-2     12.513 /_  -11.4    1.0034
   -                 2       7.1561 /_ -161.8   0.99396    12.470        2-3     12.507 /_ -130.4    1.0029
   -                 3       7.4065 /_   79.9    1.0287    12.470        3-1     12.707 /_  109.1     1.019
M1047303 ........... 1       7.2144 /_  -40.8    1.0021    12.470        1-2     12.503 /_  -11.4    1.0026
   -                 2       7.1484 /_ -161.8   0.99289    12.470        2-3     12.498 /_ -130.4    1.0022
   -                 3        7.405 /_   79.9    1.0285    12.470        3-1     12.701 /_  109.1    1.0185
M1047633 ........... 3        7.414 /_   79.5    1.0298    12.470
L2897554 ........... 3       7.4134 /_   79.5    1.0297    12.470
M1069627 ........... 2       7.2252 /_ -165.5    1.0036    12.470
L2897791 ........... 2       7.2237 /_ -165.5    1.0034    12.470
M1089097 ........... 2       7.4233 /_ -160.5    1.0311    12.470
M1108270 ........... 2       7.4224 /_ -160.5    1.0309    12.470
N1142101 ........... 1        6.817 /_  -41.1   0.94687    12.470
L2936214 ........... 1        6.817 /_  -41.1   0.94686    12.470
L3066810 ........... 3       7.3009 /_   79.0    1.0141    12.470
L2897769 ........... 3       7.2998 /_   79.0    1.0139    12.470
M1209758 ........... 2       7.3768 /_ -156.5    1.0246    12.470
M1209753 ........... 2       7.3764 /_ -156.5    1.0246    12.470
M1047528 ........... 1       7.4481 /_  -44.3    1.0345    12.470        1-2     13.038 /_  -15.4    1.0455
   -                 2       7.4535 /_ -166.4    1.0353    12.470        2-3      12.48 /_ -133.5    1.0008
   -                 3       7.4282 /_   79.6    1.0318    12.470        3-1     13.132 /_  107.7    1.0531
L2858166 ........... 1       7.4475 /_  -44.3    1.0344    12.470        1-2     13.037 /_  -15.4    1.0455
   -                 2        7.453 /_ -166.4    1.0352    12.470        2-3     12.479 /_ -133.5    1.0007
   -                 3        7.428 /_   79.6    1.0317    12.470        3-1     13.131 /_  107.7     1.053
M1142843 ........... 1       7.1719 /_  -38.4   0.99616    12.470        1-2     12.497 /_   -8.4    1.0022
   -                 2        7.232 /_ -158.8    1.0045    12.470        2-3     12.638 /_ -127.5    1.0135
   -                 3       7.4655 /_   82.6    1.0369    12.470        3-1     12.742 /_  111.5    1.0218
L3081380 ........... 1       7.1715 /_  -38.4   0.99611    12.470        1-2     12.494 /_   -8.5    1.0019
   -                 2       7.2282 /_ -158.8     1.004    12.470        2-3     12.634 /_ -127.6    1.0132
   -                 3       7.4626 /_   82.6    1.0365    12.470        3-1     12.738 /_  111.4    1.0215
L2804272 ........... 2       7.2777 /_ -165.3    1.0108    12.470
L2841641 ........... 2       7.2776 /_ -165.3    1.0108    12.470
M1069393 ........... 2       7.2058 /_ -167.0    1.0009    12.470
M1069408 ........... 2       7.2007 /_ -167.0    1.0002    12.470
N1142104 ........... 1        6.788 /_  -41.3   0.94284    12.470        1-2     12.036 /_  -11.3   0.96523
   -                 2       7.0264 /_ -162.5   0.97594    12.470        2-3     12.292 /_ -129.5   0.98574
   -                 3       7.4538 /_   81.3    1.0353    12.470        3-1     12.498 /_  108.6    1.0023
M1108500 ........... 1       6.7828 /_  -41.3   0.94211    12.470        1-2      12.03 /_  -11.4   0.96473
   -                 2       7.0237 /_ -162.6   0.97558    12.470        2-3     12.287 /_ -129.6   0.98536
   -                 3       7.4537 /_   81.3    1.0353    12.470        3-1     12.495 /_  108.5     1.002
L3216348 ........... 1       7.1672 /_  -44.8    0.9955    12.470
L2841627 ........... 1       7.1655 /_  -44.8   0.99527    12.470
L2916599 ........... 1       7.3219 /_  -44.8     1.017    12.470
M1047447 ........... 2       7.1517 /_ -167.1   0.99335    12.470
L2954349 ........... 2       7.1516 /_ -167.1   0.99333    12.470
L3235246 ........... 2       7.1424 /_ -167.1   0.99206    12.470
M1125911 ........... 2       7.1848 /_ -159.2   0.99795    12.470
L2711224 ........... 2       7.1834 /_ -159.2   0.99775    12.470
N1147863 ........... 3       7.3737 /_   79.5    1.0242    12.470
L3122817 ........... 3       7.3737 /_   79.5    1.0242    12.470
M1186061 ........... 1       7.3612 /_  -36.4    1.0225    12.470        1-2     12.769 /_   -6.4    1.0239
   -                 2       7.3785 /_ -156.5    1.0249    12.470        2-3     12.843 /_ -125.9    1.0299
   -                 3        7.504 /_   84.2    1.0423    12.470        3-1     12.915 /_  113.6    1.0357
L2861223 ........... 2       7.3784 /_ -156.5    1.0248    12.470
M1069130 ........... 1       7.3031 /_  -40.7    1.0144    12.470
L3085396 ........... 1       7.3028 /_  -40.7    1.0143    12.470
E182730 ............ 1       7.2972 /_  -44.5    1.0136    12.470
N1142109 ........... 1       7.2971 /_  -44.5    1.0136    12.470
M1069417 ........... 1       7.3347 /_  -44.3    1.0188    12.470        1-2     12.787 /_  -15.8    1.0254
   -                 2       7.2425 /_ -166.9     1.006    12.470        2-3     12.199 /_ -133.9   0.97828
   -                 3       7.2898 /_   78.9    1.0125    12.470        3-1     12.867 /_  107.4    1.0318
N1138597 ........... 1       7.3343 /_  -44.3    1.0187    12.470        1-2     12.785 /_  -15.8    1.0253
   -                 2       7.2411 /_ -166.9    1.0058    12.470        2-3     12.198 /_ -133.9   0.97815
   -                 3       7.2893 /_   78.9    1.0125    12.470        3-1     12.865 /_  107.4    1.0317
M1026987 ........... 2       7.1617 /_ -167.0   0.99474    12.470
M1026990 ........... 2       7.1602 /_ -167.0   0.99453    12.470
M1142832 ........... 1       7.1708 /_  -38.5     0.996    12.470        1-2     12.486 /_   -8.6    1.0013
   -                 2       7.2201 /_ -158.9    1.0028    12.470        2-3     12.626 /_ -127.7    1.0125
   -                 3       7.4565 /_   82.4    1.0357    12.470        3-1     12.728 /_  111.3    1.0207
L3160865 ........... 1       7.1704 /_  -38.5   0.99596    12.470        1-2     12.484 /_   -8.6    1.0011
   -                 2       7.2178 /_ -158.9    1.0025    12.470        2-3     12.624 /_ -127.7    1.0123
   -                 3       7.4549 /_   82.4    1.0355    12.470        3-1     12.726 /_  111.3    1.0205
L2673323 ........... 3       7.3633 /_   79.5    1.0227    12.470
M1009809 ........... 3       7.3631 /_   79.5    1.0227    12.470
L2822869 ........... 1       7.3588 /_  -44.4    1.0221    12.470        1-2     12.909 /_  -15.3    1.0352
   -                 2       7.4042 /_ -166.4    1.0284    12.470        2-3     12.375 /_ -133.5   0.99235
   -                 3        7.349 /_   79.6    1.0208    12.470        3-1     12.988 /_  107.6    1.0415
M1026808 ........... 1       7.3494 /_  -44.4    1.0208    12.470        1-2     12.899 /_  -15.3    1.0344
   -                 2       7.4033 /_ -166.4    1.0283    12.470        2-3     12.369 /_ -133.5   0.99187
   -                 3       7.3428 /_   79.6    1.0199    12.470        3-1     12.975 /_  107.6    1.0405
M1047825 ........... 2       7.1281 /_ -167.1   0.99008    12.470
M1069731 ........... 2       7.1265 /_ -167.1   0.98985    12.470
N1140520 ........... 3       7.3428 /_   79.6    1.0199    12.470
L2729410 ........... 3       7.3428 /_   79.6    1.0199    12.470
L3178978 ........... 1       7.1898 /_  -44.7   0.99865    12.470
M1069384 ........... 1       7.3288 /_  -44.3     1.018    12.470
L3066805 ........... 1       7.3287 /_  -44.3    1.0179    12.470
M4362181 ........... 2        7.133 /_ -167.2   0.99075    12.470
M1047319 ........... 3       7.3998 /_   79.9    1.0278    12.470
M1047318 ........... 3       7.3994 /_   79.9    1.0278    12.470
L3216358 ........... 1       7.3095 /_  -44.8    1.0153    12.470
M1026826 ........... 1       7.3082 /_  -44.8    1.0151    12.470
M1108276 ........... 2        7.419 /_ -160.5    1.0305    12.470
M1089198 ........... 1       7.3281 /_  -42.4    1.0179    12.470        1-2     12.844 /_  -13.1      1.03
   -                 2       7.3822 /_ -164.0    1.0254    12.470        2-3     12.573 /_ -131.4    1.0083
   -                 3        7.502 /_   80.7     1.042    12.470        3-1     13.038 /_  108.8    1.0456
M1089201 ........... 1       7.3115 /_  -42.5    1.0155    12.470        1-2     12.824 /_  -13.2    1.0284
   -                 2       7.3719 /_ -164.2    1.0239    12.470        2-3     12.557 /_ -131.5     1.007
   -                 3       7.5027 /_   80.6    1.0421    12.470        3-1     13.027 /_  108.7    1.0447
M1047763 ........... 1       7.3489 /_  -44.1    1.0207    12.470        1-2     12.779 /_  -15.8    1.0248
   -                 2       7.2014 /_ -167.0    1.0003    12.470        2-3     12.256 /_ -133.1   0.98284
   -                 3       7.4532 /_   79.5    1.0352    12.470        3-1     13.048 /_  107.5    1.0463
N1136027 ........... 1       7.3486 /_  -44.1    1.0207    12.470
L3101827 ........... 3       7.4968 /_   81.1    1.0413    12.470
M1108540 ........... 3       7.4938 /_   81.1    1.0409    12.470
M1026335 ........... 1       7.1678 /_  -40.7   0.99559    12.470
L2804259 ........... 1       7.1677 /_  -40.7   0.99558    12.470
N1136357 ........... 3       7.5172 /_   80.2    1.0441    12.470
M1047513 ........... 1       7.3964 /_  -44.4    1.0273    12.470        1-2     12.956 /_  -15.3     1.039
   -                 2       7.4162 /_ -166.4    1.0301    12.470        2-3     12.408 /_ -133.5   0.99502
   -                 3       7.3764 /_   79.6    1.0246    12.470        3-1     13.041 /_  107.7    1.0458
M1047507 ........... 1       7.3828 /_  -44.4    1.0255    12.470        1-2     12.935 /_  -15.3    1.0373
   -                 2       7.4063 /_ -166.4    1.0287    12.470        2-3      12.39 /_ -133.5   0.99356
   -                 3       7.3646 /_   79.6    1.0229    12.470        3-1     13.019 /_  107.7    1.0441
M1142863 ........... 1       7.1327 /_  -38.7   0.99071    12.470        1-2     12.448 /_   -8.7   0.99828
   -                 2       7.2089 /_ -159.1    1.0013    12.470        2-3     12.601 /_ -127.7    1.0105
   -                 3       7.4625 /_   82.5    1.0365    12.470        3-1     12.714 /_  111.2    1.0196
N1141480 ........... 3       7.4625 /_   82.5    1.0365    12.470
M1125916 ........... 2       7.1861 /_ -159.2   0.99813    12.470
...